REMARK  Name = cyanidin 3-O-beta-D-sambubioside
REMARK  6 active torsions:
REMARK  status: ('A' for Active; 'I' for Inactive)
REMARK    1  A    between atoms: C_11  and  O_19
REMARK    2  A    between atoms: C_12  and  C_13
REMARK    3  A    between atoms: O_19  and  C_20
REMARK    4  A    between atoms: C_22  and  C_23
REMARK    5  A    between atoms: C_29  and  O_30
REMARK    6  A    between atoms: O_30  and  C_33
REMARK                            x       y       z     vdW  Elec       q    Type
REMARK                         _______ _______ _______ _____ _____    ______ ____
ROOT
ATOM      1  O   UNL     1       0.602  -0.200   0.000  0.00  0.00    +0.000 OA
ENDROOT
BRANCH   1  12
ATOM      2  C   UNL     1       2.031  -0.200   0.000  0.00  0.00    +0.000 A 
ATOM      3  C   UNL     1       2.746   1.038   0.000  0.00  0.00    +0.000 A 
ATOM      4  C   UNL     1       2.746   0.212   0.000  0.00  0.00    +0.000 A 
ATOM      5  C   UNL     1       3.460   1.450   0.000  0.00  0.00    +0.000 A 
ATOM      6  C   UNL     1       4.175   0.212   0.000  0.00  0.00    +0.000 A 
ATOM      7  O   UNL     1       2.062   1.450   0.000  0.00  0.00    +0.000 OA
ATOM      8  C   UNL     1       4.175   1.038   0.000  0.00  0.00    +0.000 A 
ATOM      9  O   UNL     1       4.889   1.450   0.000  0.00  0.00    +0.000 OA
ATOM     10  C   UNL     1       3.460  -0.200   0.000  0.00  0.00    +0.000 A 
ATOM     11  O   UNL     1       3.460  -1.025   0.000  0.00  0.00    +0.000 OA
ATOM     12  C   UNL     1       1.317   0.212   0.000  0.00  0.00    +0.000 A 
ATOM     13  C   UNL     1       1.317   1.038   0.000  0.00  0.00    +0.000 A 
BRANCH  13  14
ATOM     14  C   UNL     1       0.602   1.450   0.000  0.00  0.00    +0.000 A 
ATOM     15  C   UNL     1       0.602   2.275   0.000  0.00  0.00    +0.000 A 
ATOM     16  C   UNL     1      -0.112   1.038   0.000  0.00  0.00    +0.000 A 
ATOM     17  C   UNL     1      -0.827   2.275   0.000  0.00  0.00    +0.000 A 
ATOM     18  O   UNL     1      -1.541   2.688   0.000  0.00  0.00    +0.000 OA
ATOM     19  C   UNL     1      -0.827   1.450   0.000  0.00  0.00    +0.000 A 
ATOM     20  C   UNL     1      -0.112   2.688   0.000  0.00  0.00    +0.000 A 
ATOM     21  O   UNL     1      -0.112   3.513   0.000  0.00  0.00    +0.000 OA
ENDBRANCH  13  14
ENDBRANCH   1  12
BRANCH   1  22
ATOM     22  C   UNL     1      -0.112  -0.613   0.000  0.00  0.00    +0.000 C 
ATOM     23  O   UNL     1      -0.827  -0.200   0.000  0.00  0.00    +0.000 OA
ATOM     24  C   UNL     1      -1.541  -0.613   0.000  0.00  0.00    +0.000 C 
ATOM     25  C   UNL     1      -1.541  -1.438   0.000  0.00  0.00    +0.000 C 
ATOM     26  O   UNL     1      -2.256  -1.850   0.000  0.00  0.00    +0.000 OA
ATOM     27  C   UNL     1      -0.827  -1.850   0.000  0.00  0.00    +0.000 C 
ATOM     28  O   UNL     1      -0.827  -2.675   0.000  0.00  0.00    +0.000 OA
ATOM     29  C   UNL     1      -0.112  -1.438   0.000  0.00  0.00    +0.000 C 
BRANCH  24  30
ATOM     30  C   UNL     1      -2.256  -0.200   0.000  0.00  0.00    +0.000 C 
ATOM     31  O   UNL     1      -2.970  -0.613   0.000  0.00  0.00    +0.000 OA
ENDBRANCH  24  30
BRANCH  29  32
ATOM     32  O   UNL     1       0.602  -1.850   0.000  0.00  0.00    +0.000 OA
BRANCH  32  33
ATOM     33  C   UNL     1       1.317  -2.263   0.000  0.00  0.00    +0.000 C 
ATOM     34  O   UNL     1       2.031  -1.850   0.000  0.00  0.00    +0.000 OA
ATOM     35  C   UNL     1       1.317  -3.087   0.000  0.00  0.00    +0.000 C 
ATOM     36  C   UNL     1       2.031  -3.500   0.000  0.00  0.00    +0.000 C 
ATOM     37  C   UNL     1       2.746  -3.087   0.000  0.00  0.00    +0.000 C 
ATOM     38  C   UNL     1       2.746  -2.263   0.000  0.00  0.00    +0.000 C 
ATOM     39  O   UNL     1       3.460  -3.500   0.000  0.00  0.00    +0.000 OA
ATOM     40  O   UNL     1       2.031  -4.325   0.000  0.00  0.00    +0.000 OA
ATOM     41  O   UNL     1       0.602  -3.500   0.000  0.00  0.00    +0.000 OA
ENDBRANCH  32  33
ENDBRANCH  29  32
ENDBRANCH   1  22
TORSDOF 6
