REMARK  Name = dihydromyricetin
REMARK  1 active torsions:
REMARK  status: ('A' for Active; 'I' for Inactive)
REMARK    1  A    between atoms: C_12  and  C_13
REMARK                            x       y       z     vdW  Elec       q    Type
REMARK                         _______ _______ _______ _____ _____    ______ ____
ROOT
ATOM      1  C   UNL     1      -3.603   0.819   0.000  0.00  0.00    +0.000 A 
ATOM      2  C   UNL     1      -4.318  -0.419   0.000  0.00  0.00    +0.000 A 
ATOM      3  C   UNL     1      -2.889   0.406   0.000  0.00  0.00    +0.000 A 
ATOM      4  C   UNL     1      -2.889  -0.419   0.000  0.00  0.00    +0.000 A 
ATOM      5  O   UNL     1      -2.174   0.819   0.000  0.00  0.00    +0.000 OA
ATOM      6  C   UNL     1      -2.174  -0.831   0.000  0.00  0.00    +0.000 C 
ATOM      7  O   UNL     1      -2.174  -1.656   0.000  0.00  0.00    +0.000 OA
ATOM      8  C   UNL     1      -3.603  -0.831   0.000  0.00  0.00    +0.000 A 
ATOM      9  O   UNL     1      -3.603  -1.656   0.000  0.00  0.00    +0.000 OA
ATOM     10  C   UNL     1      -4.318   0.406   0.000  0.00  0.00    +0.000 A 
ATOM     11  O   UNL     1      -5.032   0.819   0.000  0.00  0.00    +0.000 OA
ATOM     12  C   UNL     1      -1.460   0.406   0.000  0.00  0.00    +0.000 C 
ATOM     13  C   UNL     1      -1.460  -0.419   0.000  0.00  0.00    +0.000 C 
ATOM     14  O   UNL     1      -0.745  -0.831   0.000  0.00  0.00    +0.000 OA
ENDROOT
BRANCH  12  15
ATOM     15  C   UNL     1      -0.745   0.819   0.000  0.00  0.00    +0.000 A 
ATOM     16  C   UNL     1      -0.023   0.420   0.000  0.00  0.00    +0.000 A 
ATOM     17  C   UNL     1      -0.761   1.643   0.000  0.00  0.00    +0.000 A 
ATOM     18  C   UNL     1       0.683   0.845   0.000  0.00  0.00    +0.000 A 
ATOM     19  O   UNL     1       1.398   0.433   0.000  0.00  0.00    +0.000 OA
ATOM     20  C   UNL     1       0.668   1.670   0.000  0.00  0.00    +0.000 A 
ATOM     21  O   UNL     1       1.382   2.083   0.000  0.00  0.00    +0.000 OA
ATOM     22  C   UNL     1      -0.054   2.069   0.000  0.00  0.00    +0.000 A 
ATOM     23  O   UNL     1      -0.054   2.894   0.000  0.00  0.00    +0.000 OA
ENDBRANCH  12  15
TORSDOF 1
