REMARK  Name = kaempferol
REMARK  1 active torsions:
REMARK  status: ('A' for Active; 'I' for Inactive)
REMARK    1  A    between atoms: C_11  and  C_14
REMARK                            x       y       z     vdW  Elec       q    Type
REMARK                         _______ _______ _______ _____ _____    ______ ____
ROOT
ATOM      1  C   UNL     1      -1.021  -0.707   0.000  0.00  0.00    +0.000 A 
ATOM      2  C   UNL     1      -1.021   0.118   0.000  0.00  0.00    +0.000 A 
ATOM      3  C   UNL     1      -0.306  -1.120   0.000  0.00  0.00    +0.000 A 
ATOM      4  C   UNL     1      -1.735  -1.120   0.000  0.00  0.00    +0.000 A 
ATOM      5  O   UNL     1      -0.306   0.530   0.000  0.00  0.00    +0.000 OA
ATOM      6  C   UNL     1      -1.735   0.530   0.000  0.00  0.00    +0.000 A 
ATOM      7  C   UNL     1       0.408  -0.707   0.000  0.00  0.00    +0.000 A 
ATOM      8  O   UNL     1      -0.306  -1.945   0.000  0.00  0.00    +0.000 OA
ATOM      9  C   UNL     1      -2.450  -0.707   0.000  0.00  0.00    +0.000 A 
ATOM     10  O   UNL     1      -1.735  -1.945   0.000  0.00  0.00    +0.000 OA
ATOM     11  C   UNL     1       0.408   0.118   0.000  0.00  0.00    +0.000 A 
ATOM     12  C   UNL     1      -2.450   0.118   0.000  0.00  0.00    +0.000 A 
ATOM     13  O   UNL     1       1.123  -1.120   0.000  0.00  0.00    +0.000 OA
ATOM     14  O   UNL     1      -3.164   0.530   0.000  0.00  0.00    +0.000 OA
ENDROOT
BRANCH  11  15
ATOM     15  C   UNL     1       1.123   0.530   0.000  0.00  0.00    +0.000 A 
ATOM     16  C   UNL     1       1.123   1.355   0.000  0.00  0.00    +0.000 A 
ATOM     17  C   UNL     1       1.837   0.118   0.000  0.00  0.00    +0.000 A 
ATOM     18  C   UNL     1       1.837   1.768   0.000  0.00  0.00    +0.000 A 
ATOM     19  C   UNL     1       2.552   0.530   0.000  0.00  0.00    +0.000 A 
ATOM     20  C   UNL     1       2.552   1.355   0.000  0.00  0.00    +0.000 A 
ATOM     21  O   UNL     1       3.266   1.768   0.000  0.00  0.00    +0.000 OA
ENDBRANCH  11  15
TORSDOF 1
